TY  - JOUR
T1  - Physics-informed neural networks in groundwater flow modeling: Advantages and future directions
AU  - Ali, Ahmed Shakir Ali
AU  - Jazaei, Farhad
AU  - Clement, T. Prabhakar
AU  - Waldron, Brian
JO  - Groundwater for Sustainable Development
VL  - 25
SP  - 101172
PY  - 2024
DA  - 2024/05/01/
SN  - 2352-801X
DO  - https://doi.org/10.1016/j.gsd.2024.101172
UR  - https://www.sciencedirect.com/science/article/pii/S2352801X2400095X
KW  - Artificial intelligence
KW  - Physics-informed neural network
KW  - PINN
KW  - Groundwater modeling
KW  - MODFLOW
AB  - In recent years, there has been enormous development in soft computing, especially artificial intelligence (AI), which has developed robust methods for solving complex engineering problems. Researchers in the field of water resources engineering have applied these AI methods to solve a variety of hydrological problems. Despite their widespread use in the surface and atmospheric hydrology fields, groundwater hydrologists have not widely used AI methods in their routine field-scale modeling efforts. This is because AI models have been primarily considered black box models that lack physical meaning. Furthermore, using AI models to generate the space-time distribution of transient groundwater level variations is challenging and requires further flux balance and mass transport analyses. More recently, a new type of physics-informed neural network (PINN) model has been developed to address several limitations by integrating governing physics (groundwater flow equations) into the AI tools. This study presents the systematic advantages of the PINN algorithm for solving groundwater problems using a set of classic test problems. As discussed in detail in the article, these advantages and potentials are associated with the meshless nature of PINN, its continuous time and space dimensions, its independence from time-stepping and incremental marching in space, and its efficiency in running time. However, despite PINN's promising attributes, it is important to acknowledge its nascent stage of development and the inherent limitations of all neural network models, such as training challenges and hyperparameter selection. Thus, collaborative efforts between groundwater modelers and computer scientists are imperative to explore and exploit the full potential of PINN in tackling increasingly complex groundwater problems and nurturing PINN into a dependable modeling tool in industry and academia.
ER  - 

TY  - JOUR
T1  - Mobileception-ResNet for transient stability prediction of novel power systems
AU  - Yin, Linfei
AU  - Ge, Wei
JO  - Energy
VL  - 309
SP  - 133163
PY  - 2024
DA  - 2024/11/15/
SN  - 0360-5442
DO  - https://doi.org/10.1016/j.energy.2024.133163
UR  - https://www.sciencedirect.com/science/article/pii/S0360544224029384
KW  - Transient stability
KW  - Deep learning
KW  - MobileNet-v2
KW  - Convolutional neural network
KW  - Inception-ResNet-v2
AB  - Power system transient stability prediction (TSP) is particularly important as power systems change and evolve, including the rapid growth of renewable energy, the proliferation of electric vehicles, and the construction of smart grids. Traditional time-domain simulation methods are time-consuming and cannot achieve online prediction. Direct methods are poorly adapted and cannot be applied to complex power systems. Existing machine learning algorithms only classify the transient stability without providing the degree of transient stability of the system. Therefore, a fast and accurate power system TSP method is needed to assist operators in implementing timely measures to improve the stability of the power system running. This study proposes a Mobileception-ResNet network, Mobileception-ResNet is formed by Inception-ResNet-v2, MobileNet-v2, and a fully connected layer. In this study, Mobileception-ResNet and nine comparison models are experimented on two node systems, i.e., the IEEE 10–39 and 69–300 systems. In the IEEE 10–39 system, the root mean square error, mean absolute error, and mean absolute percentage error of Mobileception-ResNet are 44.13 %, 36.74 %, and 39.96 % lower, and the coefficient of determination is 0.04 % higher, respectively, when compared to the comparative model with the best evaluation indicator; in the IEEE 69–300 system, the corresponding values are 2.6 %, 12.83 %, 12.55 %, and 0.01 %, respectively.
ER  - 

TY  - JOUR
T1  - Music as a blend of spirituality, culture, and mind mollifying drug
AU  - Arora, Shefali
AU  - Tyagi, Abhinav
JO  - Applied Acoustics
VL  - 189
SP  - 108615
PY  - 2022
DA  - 2022/02/28/
SN  - 0003-682X
DO  - https://doi.org/10.1016/j.apacoust.2021.108615
UR  - https://www.sciencedirect.com/science/article/pii/S0003682X2100709X
KW  - Music
KW  - Science
KW  - Emotions
KW  - Society
KW  - Health
KW  - COVID-19 etc
AB  - Science inspires music more often than human imagination. Music is an integral part of all societies, including animal ones. It is behaving like an instrument for digesting information. It has been proven to help in healing the body, mind, and culture. Music can maintain and regulate emotion. It is a common thread among large social groups and is used as a tool to navigate through life. Real science and real music require a steady thinking process. It is a way of finding compatibility within a society as well as developing a link with other societies. Music plays a developmental role in a person’s identity, cultural worldview and permeates through life. In nutshell “Science explains Music and Music makes us The Human”
ER  - 

TY  - JOUR
T1  - Brain decoding in multiple languages: Can cross-language brain decoding work?
AU  - Xu, Min
AU  - Li, Duo
AU  - Li, Ping
JO  - Brain and Language
VL  - 215
SP  - 104922
PY  - 2021
DA  - 2021/04/01/
SN  - 0093-934X
DO  - https://doi.org/10.1016/j.bandl.2021.104922
UR  - https://www.sciencedirect.com/science/article/pii/S0093934X2100016X
KW  - Cross-language brain decoding
KW  - Neural representation
KW  - Multivariate pattern analysis
KW  - Computational modeling
KW  - Multilingualism
AB  - The approach of cross-language brain decoding is to use models of brain decoding from one language to decode stimuli of another language. It has the potential to provide new insights into how our brain represents multiple languages. While it is possible to decode semantic information across different languages from neuroimaging data, the approach’s overall success remains to be tested and depends on a number of factors such as cross-language similarity, age of acquisition/proficiency levels, and depth of language processing. We expect to see continued progress in this domain, from a traditional focus on words and concrete concepts toward the use of naturalistic experimental tasks involving higher-level language processing (e.g., discourse processing). The approach can also be applied to understand how cross-modal, cross-cultural, and other nonlinguistic factors may influence neural representations of different languages. This article provides an overview of cross-language brain decoding with suggestions for future research directions.
ER  - 

TY  - JOUR
T1  - Understanding molecular signaling cascades in neural disease using multi-resolution models
AU  - Viswan, Nisha Ann
AU  - Bhalla, Upinder Singh
JO  - Current Opinion in Neurobiology
VL  - 83
SP  - 102808
PY  - 2023
DA  - 2023/12/01/
SN  - 0959-4388
DO  - https://doi.org/10.1016/j.conb.2023.102808
UR  - https://www.sciencedirect.com/science/article/pii/S0959438823001332
AB  - If the genome defines the program for the operations of a cell, signaling networks execute it. These cascades of chemical, cell-biological, structural, and trafficking events span milliseconds (e.g., synaptic release) to potentially a lifetime (e.g., stabilization of dendritic spines). In principle almost every aspect of neuronal function, particularly at the synapse, depends on signaling. Thus dysfunction of these cascades, whether through mutations, local dysregulation, or infection, leads to disease. The sheer complexity of these pathways is matched by the range of diseases and the diversity of their phenotypes. In this review, we discuss how to build computational models, how these models are essential to tackle this complexity, and the benefits of using families of models at different levels of detail to understand signaling in health and disease.
ER  - 

TY  - JOUR
T1  - Biomimetic Construction of Category Mental Imagery Based on Recognition Mechanism of Visual Cortex of Human Brain
AU  - Zhang, Xianghe
AU  - Wang, Dan
AU  - Ren, Luquan
AU  - Liu, Pingping
JO  - Journal of Bionic Engineering
VL  - 7
SP  - S238
EP  - S244
PY  - 2010
DA  - 2010/09/01/
SN  - 1672-6529
DO  - https://doi.org/10.1016/S1672-6529(09)60241-9
UR  - https://www.sciencedirect.com/science/article/pii/S1672652909602419
KW  - multi-dimensional space biomimetic informatics
KW  - artificial intelligence
KW  - cognitive science
KW  - mental imagery
KW  - visual cortex
KW  - object recognition
AB  - The principle of homology-continuity in Multi-Dimensional Biomimetic Informatics Space is applied to construct the identifying mechanism of category of deep representation of mental imagery. The model of each cerebral region involved in recognizing is established respectively and a feedforward method for establishing category mental imagery is proposed. First, the model of feature acquisition is developed based on Hubel-Wiesel model, and Gaussian function is used to simulate the simple cell receptive field to satisfy the specific function of visual cortex. Second, multiple input aggregation operation is employed to simulate the feature output of complex cells to get the invariance representation in feature space. Then, imagery basis is extracted by unsupervised learning algorithm based on the primary feature and category mental imagery is obtained by building Radial Basis Function (RBF) network. Finally, the system model is tested by training set and test set composed of real images. Experimental results show that the proposed method can establish valid deep representation of these samples, based on which the biomimetic construction of category mental imagery can be achieved. This method provides a new idea for solving imagery problem and studying imagery thinking.
ER  - 

TY  - JOUR
T1  - Decoding intentions of self and others from fMRI activity patterns
AU  - Gilbert, Sam J.
AU  - Fung, Hoki
JO  - NeuroImage
VL  - 172
SP  - 278
EP  - 290
PY  - 2018
DA  - 2018/05/15/
SN  - 1053-8119
DO  - https://doi.org/10.1016/j.neuroimage.2017.12.090
UR  - https://www.sciencedirect.com/science/article/pii/S105381191731114X
KW  - Intentions
KW  - MVPA
KW  - fMRI
AB  - Previous studies using multi-voxel pattern analysis have decoded the content of participants' delayed intentions from patterns of fMRI data. Here we investigate whether this technique can be used to decode not only participants' own intentions, but also their representation of the intentions held by other people. In other words: if Sam is thinking about Hoki, can we decode the content of Hoki's intention by scanning Sam's brain? We additionally distinguished two components of intentions: action-plans versus goals, and included novel control analyses that allowed us to distinguish intending an outcome from simply expecting it to occur or simulating its consequences. Regions of frontal, parietal, and occipital cortex contained patterns from which it was possible to decode intentions of both self and other. Furthermore, crossclasification between self and other was possible, suggesting overlap between the two. Control analyses suggested that these results reflected visuo-spatial processes by which intentions were generated in our paradigm, rather than anything special about intentions per se. There was no evidence for any representation of intentions as mental states distinct from visuospatial processes involved in generating their content and/or simulating their outcomes. These findings suggest that the brain activity patterns decoded in intention-decoding fMRI studies may reflect domain-general processes rather than being intention-specific.
ER  - 

TY  - JOUR
T1  - Equalities between Combinators to Evaluate Expressions
AU  - Ismailova, Larisa
AU  - Wolfengagen, Viacheslav
AU  - Kosikov, Sergey
JO  - Procedia Computer Science
VL  - 190
SP  - 332
EP  - 340
PY  - 2021
DA  - 2021/01/01/
T2  - 2020 Annual International Conference on Brain-Inspired Cognitive Architectures for Artificial Intelligence: Eleventh Annual Meeting of the BICA Society
SN  - 1877-0509
DO  - https://doi.org/10.1016/j.procs.2021.06.058
UR  - https://www.sciencedirect.com/science/article/pii/S1877050921013053
KW  - information process
KW  - model structure
KW  - indexed expressions
KW  - cognitive model
KW  - combinator-as-process
AB  - One of the aims of this work is to revise the known issues of how to obtain the value of the expression using an applicative computing system. Computation and/or symbolic transformations have undoubtedly become one of the dominant trends in modern computer science. In particular, this refers to the execution of the processes of inference of an object with given properties, which is studied with the formation of sets of equalities leading to a target computational model. At the same time, the mathematical theory of computation gets a target equational description, making the process of studying its properties and capabilities more suitable. A model structure based on the method of indexed expressions is developed and applied using the notions of evaluation mapping and assignments. As shown, this may not be considered as generic notion, but derived using the combinators. Thus, the semantics of computation can be derived from the construction of a combinator-as-process. This is the embedding into a system of combinators. A linking system of equalities between combinatorsl is established, which serving as a generic computational model. This allows us to look differently at the previous cognitive ideas of the semantics of computation disabling an evaluation map and assignments and enabling their replacement by a set of equalities between combinators.
ER  - 

TY  - JOUR
T1  - GA-GGD: Improving semantic discriminability in graph contrastive learning via Generative Adversarial Network
AU  - Zhao, Jitao
AU  - He, Dongxiao
AU  - Ge, Meng
AU  - Huang, Yongqi
AU  - Shan, Lianze
AU  - Qin, Yongbin
AU  - Feng, Zhiyong
JO  - Information Fusion
VL  - 110
SP  - 102465
PY  - 2024
DA  - 2024/10/01/
SN  - 1566-2535
DO  - https://doi.org/10.1016/j.inffus.2024.102465
UR  - https://www.sciencedirect.com/science/article/pii/S1566253524002434
KW  - Graph representation learning
KW  - Generative Adversarial Network
KW  - Graph contrastive learning
KW  - Adversarial Machine Learning
KW  - Semantic discriminability
AB  - Graph contrastive learning has garnered considerable research interest due to its ability to effectively embed graph data without manual labels. Among them, methods based on Deep Graph Infomax (DGI) have been widely studied and favored in the industry because of their fast training speed, applicability to large-scale data. DGI-based methods usually obtain a noise graph through node shuffling. The proxy task of these methods encourages the encoder to distinguish whether the nodes come from the original graph or the noise graph, thereby maximizing the mutual information between the node representation and the graph it belongs to, while also maximizing the Jenson–Shannon divergence between the nodes of original graph and noise graph. However, we argue that these approaches only enable the encoder to differentiate between semantically meaningful graphs and noise graphs, but not to effectively identify different semantic graphs. This leads to the inability of the encoder to effectively embed information between different semantics, significantly reducing the robustness and affecting the performance of downstream tasks. In addition, this training mode makes the model more sensitive to attacks. To improve their semantic discriminability, we take advantage of the natural ability of generative adversarial networks to generate semantic data, proposing a method called Generative Adversarial Graph Group Discrimination (GA-GGD). Specifically, it consists of a graph group discriminator and a semantic attack generator. The discriminator aims to encode the graph and identify whether nodes originate from the original graph. The goal of the generator is to use random features and graph structure to find vulnerabilities of discriminator and generate node representations with similar but wrong semantic to confuse the discriminator. GA-GGD can improve the model’s semantic information embedding without significantly increasing computational overhead and memory occupancy. We test the effectiveness of the proposed model on commonly used data sets and large-scale datasets, as well as in various downstream tasks such as classification, clustering, and adversarial attacks defence. A wealth of experimental results confirm the efficacy of the proposed model.
ER  - 

TY  - JOUR
T1  - A review of spatially-explicit GeoAI applications in Urban Geography
AU  - Liu, Pengyuan
AU  - Biljecki, Filip
JO  - International Journal of Applied Earth Observation and Geoinformation
VL  - 112
SP  - 102936
PY  - 2022
DA  - 2022/08/01/
SN  - 1569-8432
DO  - https://doi.org/10.1016/j.jag.2022.102936
UR  - https://www.sciencedirect.com/science/article/pii/S1569843222001339
KW  - Urban studies
KW  - Deep learning
KW  - Socio-economics
KW  - Location encoder
KW  - Graph neural network
AB  - Urban Geography studies forms, social fabrics, and economic structures of cities from a geographic perspective. Catalysed by the increasingly abundant spatial big data, Urban Geography seeks new models and research paradigms to explain urban phenomena and address urban issues. Recent years have witnessed significant advances in spatially-explicit geospatial artificial intelligence (GeoAI), which integrates spatial studies and AI, primarily focusing on incorporating spatial thinking and concept into deep learning models for urban studies. This paper provides an overview of techniques and applications of spatially-explicit GeoAI in Urban Geography based on 581 papers identified using a systematic review approach. We examined and screened papers in three scopes of Urban Geography (Urban Dynamics, Social Differentiation of Urban Areas, and Social Sensing) and found that although GeoAI is a trending topic in geography and the applications of deep neural network-based methods are proliferating, the development of spatially-explicit GeoAI models is still at their early phase. We identified three challenges of existing models and advised future research direction towards developing multi-scale explainable spatially-explicit GeoAI. This review paper acquaints beginners with the basics of GeoAI and state-of-the-art and serve as an inspiration to attract more research in exploring the potential of spatially-explicit GeoAI in studying the socio-economic dimension of the city and urban life.
ER  - 

TY  - JOUR
T1  - The future of sustainable digital infrastructures: A landscape of solutions, adoption factors, impediments, open problems, and scenarios
AU  - Verdecchia, Roberto
AU  - Lago, Patricia
AU  - de Vries, Carol
JO  - Sustainable Computing: Informatics and Systems
VL  - 35
SP  - 100767
PY  - 2022
DA  - 2022/09/01/
SN  - 2210-5379
DO  - https://doi.org/10.1016/j.suscom.2022.100767
UR  - https://www.sciencedirect.com/science/article/pii/S2210537922000889
KW  - Sustainability
KW  - Green IT
KW  - Energy efficiency
KW  - Digital infrastructures
KW  - Data centers
KW  - Cloud
KW  - Landscape
KW  - Qualitative research
AB  - Background:
Digital infrastructures, i.e., ICT systems, or system-of-systems, providing digital capabilities, such as storage and computational services, are experiencing an ever-growing demand for data consumption, which is only expected to increase in the future. This trend leads to a question we need to answer: How can we evolve digital infrastructures to keep up with the increasing data demand in a sustainable way?
Objective:
The goal of this study is to understand what is the future of sustainable digital infrastructures, in terms of: which solutions are, or will be, available to sustainably evolve digital infrastructures, and which are the related adoption factors, impediments, and open problems.
Method:
We carried out a 3-phase mixed-method qualitative empirical study, comprising semi-structured interviews, followed by focus groups, and a plenary session with parallel working groups. In total, we conducted 13 sessions involving 48 digital infrastructure practitioners and researchers.
Results:
From our investigation emerges a landscape for sustainable digital infrastructures, composed of 30 solutions, 5 adoption factors, 4 impediments, and 13 open problems. We further synthesized our results in 4 incremental scenarios, which outline the future evolution of sustainable digital infrastructures.
Conclusions:
From an initial shift from on-premise to the cloud, as time progresses, digital infrastructures are expected to become increasingly distributed, till it will be possible to dynamically allocate resources by following time, space, and energy. Numerous solutions will support this change, but digital infrastructures are envisaged to be able to evolve sustainably only by (i) gaining a wider awareness of digital sustainability, (ii) holding every party accountable for their sustainability throughout value chains, and (iii) establishing cross-domain collaborations.
ER  - 

TY  - JOUR
T1  - The past and future of mapping the biomarkers of psychosis
AU  - Wang, Ling-Ling
AU  - Lui, Simon SY
AU  - Chan, Raymond CK
JO  - Current Opinion in Behavioral Sciences
VL  - 43
SP  - 1
EP  - 5
PY  - 2022
DA  - 2022/02/01/
SN  - 2352-1546
DO  - https://doi.org/10.1016/j.cobeha.2021.06.007
UR  - https://www.sciencedirect.com/science/article/pii/S2352154621001261
AB  - Biomarker research has investigated the neurobiological basis for individual differences in liability to psychosis. However, few biomarkers for psychosis have been consistently found to be useful. This paper reviews several previous approaches to identify putative biomarkers of liability to psychosis, and then highlights the lessons that we have learned. We argue that limiting our research to clinical patients at the extreme of the psychosis continuum would likely obscure our knowledge as to how a minority of the general population would develop psychosis. Research on putative neurobiological origins of inter-individual differences in personality traits may be useful in mapping the biomarkers of psychosis. To identify biomarkers applicable to the general population, we advocate the transdiagnostic and psychosis continuum approach. We also advocate the use of multivariate analyses and computational modelling to tackle complex multi-modal datasets. More research should be conducted to study intra-individual variations over different ranges of timescale.
ER  - 

TY  - CHAP
T1  - Chapter 3 - Strategies, planning, and design
AU  - Kirwan, Christopher
AU  - Zhiyong, Fu
A2  - Kirwan, Christopher
A2  - Zhiyong, Fu
BT  - Smart Cities and Artificial Intelligence
PB  - Elsevier
SP  - 47
EP  - 67
PY  - 2020
DA  - 2020/01/01/
SN  - 978-0-12-817024-3
DO  - https://doi.org/10.1016/B978-0-12-817024-3.00003-9
UR  - https://www.sciencedirect.com/science/article/pii/B9780128170243000039
KW  - Citizen Engagement
KW  - Co-design
KW  - Data Visualization
KW  - Design Thinking
KW  - Generative Design
KW  - Information Architecture
KW  - Living Lab
KW  - Metadesign
KW  - Real-time Data
KW  - Simulation
KW  - Transdisciplinary Methods
KW  - User Experience
AB  - Traditional planning and design methodologies can now be augmented by new innovative tools and processes enabled by AI and smart technologies. These facilitate a more open-ended, multi-dimensional approach that incorporates diverse stakeholders to shape the potential of a collective intelligent operating system — one that best reflects the inherent nature of each unique city and urban condition. The design of smart cities must incorporate and adapt a combination of universal standards and localized policies through global civil society organizations and public-private-people partnerships established to serve the user and citizen as participants of the living city. New methods including co-design, co-creation, citizen participation and user experience (UX) feedback foster inclusive cities. Living labs and innovation hubs provide opportunities and spaces to prototype such initiatives. Transdisciplinary approaches are needed more than ever to expand our scope of inclusion to all life forms, including the rights of animals and nature as stakeholders. By applying a new combination of human and AI-enabled methods such as design thinking, machine learning and generative design, cities can now augment and improve their current state seamlessly, integrating technologies and management as an autopoietic smart city operating system.
ER  - 

TY  - JOUR
T1  - The effect of scaling and connection on the sustainability of a socio-economic resource system
AU  - Muneepeerakul, Rachata
AU  - Qubbaj, Murad R.
JO  - Ecological Economics
VL  - 77
SP  - 123
EP  - 128
PY  - 2012
DA  - 2012/05/01/
SN  - 0921-8009
DO  - https://doi.org/10.1016/j.ecolecon.2012.02.017
UR  - https://www.sciencedirect.com/science/article/pii/S092180091200081X
KW  - Sustainability
KW  - Scaling
KW  - Connection
KW  - Bifurcation
KW  - Population dynamics
AB  - Policy makers dealing with complex systems oftentimes rely on “linear thinking.” This is understandable due to the ease and convenience offered by the simplicity of such conceptualization. Although this line of thinking may help facilitate decision making processes, it is only as defensible as the degree at which the system under consideration behaves linearly. Recent work shows that diverse properties of cities exhibit power-law relationships with population size. Such relationships may invalidate the reliance on linear thinking. Furthermore, in the era of globalization, resources and people move virtually freely through bounds of any confines used to define a system. We incorporate into a simple resource-population model the power-law scaling behavior and the influence of import and immigration, and investigate their effects on sustainable growth of communities. We explore through bifurcation analysis the different scenarios of how an unsustainable system could be sustained. Import can be effective if: the import exceeds a critical level and a critical mass of people populates the system. In contrast, increasing immigration alone can rescue the intrinsically unsustainable system, both directly through people entering the system and indirectly by increasing its harvesting ability, although critical values exist that cause the population to sharply rise or shrink.
ER  - 

TY  - JOUR
T1  - Unlocking the potential of signature-based drug repurposing for anticancer drug discovery
AU  - Biswal, Sruti
AU  - Mallick, Bibekanand
JO  - Archives of Biochemistry and Biophysics
VL  - 761
SP  - 110150
PY  - 2024
DA  - 2024/11/01/
SN  - 0003-9861
DO  - https://doi.org/10.1016/j.abb.2024.110150
UR  - https://www.sciencedirect.com/science/article/pii/S0003986124002728
KW  - Cancer
KW  - Anticancer drug
KW  - Drug repurposing
KW  - Gene signature
AB  - Cancer is the leading cause of death worldwide and is often associated with tumor relapse even after chemotherapeutics. This reveals malignancy is a complex process, and high-throughput omics strategies in recent years have contributed significantly in decoding the molecular mechanisms of these complex events in cancer. Further, the omics studies yield a large volume of cancer-specific molecular signatures that promote the discovery of cancer therapy drugs by a method termed signature-based drug repurposing. The drug repurposing method identifies new uses for approved drugs beyond their intended initial therapeutic use, and there are several approaches to it. In this review, we discuss signature-based drug repurposing in cancer, how cancer omics have revolutionized this method of drug discovery, and how one can use the cancer signature data for repurposed drug identification by providing a step-by-step procedural handout. This modern approach maximizes the use of existing therapeutic agents for cancer therapy or combination therapy to overcome chemotherapeutics resistance, making it a pragmatic and efficient alternative to traditional resource-intensive and time-consuming methods.
ER  - 

TY  - JOUR
T1  - Potential dual inhibitors of Hexokinases and mitochondrial complex I discovered through machine learning approach
AU  - Ibezim, Akachukwu
AU  - Onah, Emmanuel
AU  - Osigwe, Sochi Chinaemerem
AU  - Okoroafor, Peter Ukwu
AU  - Ukoha, Onyeoziri Pius
AU  - de Siqueira-Neto, Jair Lage
AU  - Ntie-Kang, Fidele
AU  - Ramanathan, Karuppasamy
JO  - Scientific African
VL  - 24
SP  - e02226
PY  - 2024
DA  - 2024/06/01/
SN  - 2468-2276
DO  - https://doi.org/10.1016/j.sciaf.2024.e02226
UR  - https://www.sciencedirect.com/science/article/pii/S2468227624001728
KW  - Hexokinases
KW  - Mitochondrial complex I
KW  - Cancer
KW  - MACCS fingerprints
KW  - Boruta algorithms
KW  - Machine learning
KW  - Metabolic plasticity